<routes>
    <vehicle id="1" type="1" depart="0.00" departPos="random" departSpeed="1.00" arrivalPos="random" arrivalSpeed="0.00">
        <param key="device.battery.probability" value="1"/>
        <param key="device.battery.chargeLevel" value="500"/>
        <param key="airDragCoefficient" value="0.35"/>
        <param key="constantPowerIntake" value="100"/>
        <param key="frontSurfaceArea" value="2.6"/>
        <param key="internalMomentOfInertia" value="0.01"/>
        <param key="device.battery.capacity" value="64000"/>
        <param key="maximumPower" value="150000"/>
        <param key="propulsionEfficiency" value=".98"/>
        <param key="radialDragCoefficient" value="0.1"/>
        <param key="recuperationEfficiency" value=".96"/>
        <param key="rollDragCoefficient" value="0.01"/>
        <param key="stoppingThreshold" value="0.1"/>
        <param key="vehicleMass" value="1830"/>
        <route edges="-31606#0 -31606#1 --31634 --30768#1 --30768#0 -31230#2 -32628 --31272#2 --31272#1 --31272#0 -30528#21 -30528#22 -30528#23 -30528#24 -30528#25 -30528#26 -30528#27 -30528#28 -30528#29 -30528#30 -31888#0 -31888#1 -30496#4"/>
    </vehicle>
    <vehicle id="2" type="1" depart="0.00" departPos="random" departSpeed="1.00" arrivalPos="random" arrivalSpeed="0.00">
        <param key="device.battery.probability" value="1"/>
        <param key="device.battery.chargeLevel" value="500"/>
        <param key="airDragCoefficient" value="0.35"/>
        <param key="constantPowerIntake" value="100"/>
        <param key="frontSurfaceArea" value="2.6"/>
        <param key="internalMomentOfInertia" value="0.01"/>
        <param key="device.battery.capacity" value="64000"/>
        <param key="maximumPower" value="150000"/>
        <param key="propulsionEfficiency" value=".98"/>
        <param key="radialDragCoefficient" value="0.1"/>
        <param key="recuperationEfficiency" value=".96"/>
        <param key="rollDragCoefficient" value="0.01"/>
        <param key="stoppingThreshold" value="0.1"/>
        <param key="vehicleMass" value="1830"/>
        <route edges="-31606#0 -31606#1 --31634 --30768#1 --30768#0 -31230#2 -32628 --31272#2 --31272#1 --31272#0 -30528#21 -30528#22 -30528#23 -30528#24 -30528#25 -30528#26 -30528#27 -30528#28 -30528#29 -30528#30 -31888#0 -31888#1 -30496#4"/>
    </vehicle>
    <vehicle id="3" type="1" depart="0.00" departPos="random" departSpeed="1.00" arrivalPos="random" arrivalSpeed="0.00">
        <param key="device.battery.probability" value="1"/>
        <param key="device.battery.chargeLevel" value="500"/>
        <param key="airDragCoefficient" value="0.35"/>
        <param key="constantPowerIntake" value="100"/>
        <param key="frontSurfaceArea" value="2.6"/>
        <param key="internalMomentOfInertia" value="0.01"/>
        <param key="device.battery.capacity" value="64000"/>
        <param key="maximumPower" value="150000"/>
        <param key="propulsionEfficiency" value=".98"/>
        <param key="radialDragCoefficient" value="0.1"/>
        <param key="recuperationEfficiency" value=".96"/>
        <param key="rollDragCoefficient" value="0.01"/>
        <param key="stoppingThreshold" value="0.1"/>
        <param key="vehicleMass" value="1830"/>
        <route edges="-31606#0 -31606#1 --31634 --30768#1 --30768#0 -31230#2 -32628 --31272#2 --31272#1 --31272#0 -30528#21 -30528#22 -30528#23 -30528#24 -30528#25 -30528#26 -30528#27 -30528#28 -30528#29 -30528#30 -31888#0 -31888#1 -30496#4"/>
    </vehicle>
</routes>