<?xml version="1.0" encoding="UTF-8"?>

<!--
Luxembourg SUMO Traffic (LuST) Scenario
This project is licensed under the terms of the MIT license.
Author: Lara CODECA [codeca@gmail.com]
-->

<routes>
    <vTypeDistribution id="private">
        <vType vClass="passenger" id="1" minGap="2.50" maxSpeed="29.06" color="white" accel="1.0" decel="1.0" sigma="0.0" emissionClass="Energy/unknown">
            <param key="has.battery.device" value="true"/>
        </vType>
        <vType vClass="passenger" id="2" color=".8,.8,.8" accel="3.0" decel="4.5" sigma="0.5" length="4.5" minGap="1.5" maxSpeed="50" probability=".20" speedDev="0.1" guiShape="passenger/hatchback"/>
        <vType vClass="passenger" id="3" color=".2,.2,.8" accel="2.8" decel="4.5" sigma="0.5" length="4.5" minGap="1.0" maxSpeed="50" probability=".20" speedDev="0.1" guiShape="passenger/hatchback"/>
        <vType vClass="passenger" id="4"  color=".3,.3,.3" accel="2.7" decel="4.5" sigma="0.5" length="6.0" minGap="1.5" maxSpeed="70" probability=".10" speedDev="0.1" guiShape="passenger/wagon"/>
        <vType vClass="passenger" id="5"  color=".9,.9,.9" accel="2.4" decel="4.5" sigma="0.5" length="5.5" minGap="1.5" maxSpeed="30" probability=".05" speedDev="0.1" guiShape="passenger/van"/>
        <vType vClass="passenger" id="6"  color=".8,.8,.0" accel="2.3" decel="4.5" sigma="0.5" length="7.0" minGap="2.5" maxSpeed="30" probability=".05" speedDev="0.1" guiShape="delivery"/>
    </vTypeDistribution>
	<vType vClass="bus" id="bus" accel="2.6" decel="4.5" sigma="0.5" length="12.0" minGap="3" maxSpeed="30" speedDev="0.1" guiShape="bus">
    <param key="has.rerouting.device" value="false"/>
  </vType>
</routes>
